Circuit: * C:\Users\wmarkowski\dev-test\sources\arduino\arduino-projects\arduino-sandbox\pbx\doc\research\pbx\circut_simulations\off_hook_sensor_with_npn.asc

WARNING: Less than two connections to node NC_01.  This node is used by R4.
V1: Missing value, assumed 0V @ DC

Date: Mon Jan 13 13:49:36 2020
Total elapsed time: 0.070 seconds.

tnom = 27
temp = 27
method = trap
totiter = 2010
traniter = 0
tranpoints = 0
accept = 0
rejected = 0
matrix size = 13
fillins = 0
solver = Normal
Matrix Compiler1: 566 bytes object code size  0.1/0.1/[0.1]
Matrix Compiler2: off  [0.1]/0.1/0.1

