Circuit: * C:\Users\wmarkowski\dev-test\sources\arduino\arduino-projects\arduino-sandbox\pbx\doc\research\pbx\circut_simulations\off_hook_sensor_with_mosfet.asc

V1: Missing value, assumed 0V @ DC

Date: Sun Jan 12 22:27:30 2020
Total elapsed time: 0.062 seconds.

tnom = 27
temp = 27
method = trap
totiter = 2029
traniter = 0
tranpoints = 0
accept = 0
rejected = 0
matrix size = 17
fillins = 0
solver = Normal
Matrix Compiler1:      52 opcodes  0.3/[0.1]/0.1
Matrix Compiler2: 1.27 KB object code size  0.1/0.2/[0.1]

