Circuit: * C:\Users\wmarkowski\dev-test\sources\arduino\arduino-projects\arduino-sandbox\pbx\doc\research\pbx\circut_simulations\pbx.asc

WARNING: Node NC_01 is floating.

WARNING: Less than two connections to node NC_01.  This node is used by C2.
Direct Newton iteration for .op point succeeded.
.step r4=600
.step r4=840
.step r4=1080
.step r4=1320
.step r4=1560
.step r4=1800
.step r4=2040
.step r4=2280
.step r4=2520
.step r4=2760
.step r4=3000

Date: Tue Jan 14 15:29:56 2020
Total elapsed time: 0.442 seconds.

tnom = 27
temp = 27
method = modified trap
totiter = 2093
traniter = 2082
tranpoints = 1042
accept = 1042
rejected = 0
matrix size = 22
fillins = 0
solver = Normal
Matrix Compiler1: 1.11 KB object code size  0.3/0.2/[0.1]
Matrix Compiler2: 1.75 KB object code size  0.2/0.3/[0.1]

